LTspice 24.1.10 for Windows
Circuit: C:\Users\madan\OneDrive\Documents\LTspice\Draft7.net
Start Time: Sun Oct  5 20:11:04 2025
solver = Normal
Maximum thread count: 12
tnom = 27
temp = 27
method = trap
.OP point found by inspection.
Total elapsed time: 0.158 seconds.

Files loaded:
C:\Users\madan\OneDrive\Documents\LTspice\Draft7.net
C:\Users\madan\AppData\Local\LTspice\lib\cmp\standard.dio

