LTspice 24.1.10 for Windows
Circuit: C:\Users\madan\OneDrive\Documents\LTspice\Draft5.net
Start Time: Sun Oct  5 22:05:38 2025
solver = Normal
Maximum thread count: 12
tnom = 27
temp = 27
method = trap
Direct Newton iteration for .op point succeeded.
Total elapsed time: 0.083 seconds.

Files loaded:
C:\Users\madan\OneDrive\Documents\LTspice\Draft5.net
C:\Users\madan\AppData\Local\LTspice\lib\cmp\standard.dio

