LTspice 24.1.10 for Windows
Circuit: C:\Users\madan\OneDrive\Documents\LTspice\Draft1.net
Start Time: Sat Oct  4 15:40:37 2025
solver = Normal
Maximum thread count: 12
tnom = 27
temp = 27
method = trap
.OP point found by inspection.
Total elapsed time: 0.238 seconds.

Files loaded:
C:\Users\madan\OneDrive\Documents\LTspice\Draft1.net
C:\Users\madan\AppData\Local\LTspice\lib\cmp\standard.dio

